! AM1 Opt
* xyz 0   1
 O     -0.00026109504140    -0.46207275700248     0.00000000000000
 H      0.90896309865832     0.25744512504002     0.00000000000000
 H     -0.85047025777408     0.35904928230321     0.00000000000000
 O      0.22552872502008     0.68864373441111     0.00000000000000
 H      0.94355177178567     0.81470338263446     0.00000000000000
 H     -0.58890717086245     1.03239962823685     0.00000000000000
*

