! AM1 Opt
* xyz 0   1
 O     -0.00000000000000    -0.38800000000000     0.00000000000000
 H      0.75100000000000     0.19400000000000     0.00000000000000
 H     -0.75100000000000     0.19400000000000     0.00000000000000
 O      0.22317500000000     0.59680200000000     0.00000000000000
 H      0.97417400000000     1.17880200000000     0.00000000000000
 H     -0.52782500000000     1.17880200000000     0.00000000000000
*

